LTspice 24.0.12 for Windows
Circuit: * C:\Users\VAISHNAVI\Downloads\CEMS\CEMS\ltspice\dsm_l1\dsm_l1.asc
Start Time: Sat Feb  8 23:16:48 2025
Error: unknown token in: "v(hold)>0[?]v(vdd):0"
Error: unknown token in: "v(in)>v(vdd)/2[?]v(vss):v(vdd)"
solver = Normal
Maximum thread count: 12
tnom = 27
temp = 27
method = modified trap
WARNING: Less than two connections to node vd.  This node is used by a1.
Per .tran options, skipping operating point for transient analysis.
Total elapsed time: 12.789 seconds.

